# File generated by Flopy version 3.10.0 on 05/14/2026 at 20:38:44.
BEGIN options
  TIME_UNITS  days
END options

BEGIN dimensions
  NPER  2
END dimensions

BEGIN perioddata
     365.00000000  365       1.00000000
     365.00000000  365       1.00000000
END perioddata

