# File generated by Flopy version 3.10.0 on 05/14/2026 at 20:38:44.
BEGIN options
  auxiliary  CONCENTRATION
  PRINT_INPUT
  PRINT_FLOWS
END options

BEGIN dimensions
  MAXBOUND  2
END dimensions

BEGIN period  1
  1 4 7 8.64000000E+01 5.78700000E+01
  1 11 7 -1.63296000E+03 0.00000000E+00
END period  1

BEGIN period  2
  1 4 7 8.64000000E+01 0.00000000E+00
  1 11 7 -1.63296000E+03 0.00000000E+00
END period  2

