# File generated by Flopy version 3.10.0 on 05/14/2026 at 20:38:44.
BEGIN options
  SAVE_FLOWS
END options

BEGIN packages
  DIS6  gwt-p09-mf6.dis  dis
  IC6  gwt-p09-mf6.ic  ic
  ADV6  gwt-p09-mf6.adv  adv
  DSP6  gwt-p09-mf6.dsp  dsp
  MST6  gwt-p09-mf6.mst  mst
  SSM6  gwt-p09-mf6.ssm  ssm
  OC6  gwt-p09-mf6.oc  oc
END packages

