# File generated by Flopy version 3.10.0 on 05/14/2026 at 20:38:44.
BEGIN options
  SCHEME  tvd
END options

