# File generated by Flopy version 3.10.0 on 05/14/2026 at 20:43:55.
BEGIN options
  SAVE_SPECIFIC_DISCHARGE
END options

BEGIN griddata
  icelltype
    CONSTANT  0
  k
    INTERNAL  FACTOR  1.0
        12.73500000      12.73500000      12.73500000      12.73500000      12.73500000      12.73500000      12.73500000      12.73500000      12.73500000      12.73500000      12.73500000      12.73500000      12.73500000      12.73500000
        12.73500000      12.73500000      12.73500000      12.73500000      12.73500000      12.73500000      12.73500000      12.73500000      12.73500000      12.73500000      12.73500000      12.73500000      12.73500000      12.73500000
        12.73500000      12.73500000      12.73500000      12.73500000      12.73500000      12.73500000      12.73500000      12.73500000      12.73500000      12.73500000      12.73500000      12.73500000      12.73500000      12.73500000
        12.73500000      12.73500000      12.73500000      12.73500000      12.73500000      12.73500000      12.73500000      12.73500000      12.73500000      12.73500000      12.73500000      12.73500000      12.73500000      12.73500000
        12.73500000      12.73500000      12.73500000      12.73500000      12.73500000      12.73500000      12.73500000      12.73500000      12.73500000      12.73500000      12.73500000      12.73500000      12.73500000      12.73500000
        12.73500000       0.01273500       0.01273500       0.01273500       0.01273500       0.01273500       0.01273500       0.01273500      12.73500000      12.73500000      12.73500000      12.73500000      12.73500000      12.73500000
        12.73500000       0.01273500       0.01273500       0.01273500       0.01273500       0.01273500       0.01273500       0.01273500      12.73500000      12.73500000      12.73500000      12.73500000      12.73500000      12.73500000
        12.73500000       0.01273500       0.01273500       0.01273500       0.01273500       0.01273500       0.01273500       0.01273500      12.73500000      12.73500000      12.73500000      12.73500000      12.73500000      12.73500000
        12.73500000      12.73500000      12.73500000      12.73500000      12.73500000      12.73500000      12.73500000      12.73500000      12.73500000      12.73500000      12.73500000      12.73500000      12.73500000      12.73500000
        12.73500000      12.73500000      12.73500000      12.73500000      12.73500000      12.73500000      12.73500000      12.73500000      12.73500000      12.73500000      12.73500000      12.73500000      12.73500000      12.73500000
        12.73500000      12.73500000      12.73500000      12.73500000      12.73500000      12.73500000      12.73500000      12.73500000      12.73500000      12.73500000      12.73500000      12.73500000      12.73500000      12.73500000
        12.73500000      12.73500000      12.73500000      12.73500000      12.73500000      12.73500000      12.73500000      12.73500000      12.73500000      12.73500000      12.73500000      12.73500000      12.73500000      12.73500000
        12.73500000      12.73500000      12.73500000      12.73500000      12.73500000      12.73500000      12.73500000      12.73500000      12.73500000      12.73500000      12.73500000      12.73500000      12.73500000      12.73500000
        12.73500000      12.73500000      12.73500000      12.73500000      12.73500000      12.73500000      12.73500000      12.73500000      12.73500000      12.73500000      12.73500000      12.73500000      12.73500000      12.73500000
        12.73500000      12.73500000      12.73500000      12.73500000      12.73500000      12.73500000      12.73500000      12.73500000      12.73500000      12.73500000      12.73500000      12.73500000      12.73500000      12.73500000
        12.73500000      12.73500000      12.73500000      12.73500000      12.73500000      12.73500000      12.73500000      12.73500000      12.73500000      12.73500000      12.73500000      12.73500000      12.73500000      12.73500000
        12.73500000      12.73500000      12.73500000      12.73500000      12.73500000      12.73500000      12.73500000      12.73500000      12.73500000      12.73500000      12.73500000      12.73500000      12.73500000      12.73500000
        12.73500000      12.73500000      12.73500000      12.73500000      12.73500000      12.73500000      12.73500000      12.73500000      12.73500000      12.73500000      12.73500000      12.73500000      12.73500000      12.73500000
  k33
    INTERNAL  FACTOR  1.0
        12.73500000      12.73500000      12.73500000      12.73500000      12.73500000      12.73500000      12.73500000      12.73500000      12.73500000      12.73500000      12.73500000      12.73500000      12.73500000      12.73500000
        12.73500000      12.73500000      12.73500000      12.73500000      12.73500000      12.73500000      12.73500000      12.73500000      12.73500000      12.73500000      12.73500000      12.73500000      12.73500000      12.73500000
        12.73500000      12.73500000      12.73500000      12.73500000      12.73500000      12.73500000      12.73500000      12.73500000      12.73500000      12.73500000      12.73500000      12.73500000      12.73500000      12.73500000
        12.73500000      12.73500000      12.73500000      12.73500000      12.73500000      12.73500000      12.73500000      12.73500000      12.73500000      12.73500000      12.73500000      12.73500000      12.73500000      12.73500000
        12.73500000      12.73500000      12.73500000      12.73500000      12.73500000      12.73500000      12.73500000      12.73500000      12.73500000      12.73500000      12.73500000      12.73500000      12.73500000      12.73500000
        12.73500000       0.01273500       0.01273500       0.01273500       0.01273500       0.01273500       0.01273500       0.01273500      12.73500000      12.73500000      12.73500000      12.73500000      12.73500000      12.73500000
        12.73500000       0.01273500       0.01273500       0.01273500       0.01273500       0.01273500       0.01273500       0.01273500      12.73500000      12.73500000      12.73500000      12.73500000      12.73500000      12.73500000
        12.73500000       0.01273500       0.01273500       0.01273500       0.01273500       0.01273500       0.01273500       0.01273500      12.73500000      12.73500000      12.73500000      12.73500000      12.73500000      12.73500000
        12.73500000      12.73500000      12.73500000      12.73500000      12.73500000      12.73500000      12.73500000      12.73500000      12.73500000      12.73500000      12.73500000      12.73500000      12.73500000      12.73500000
        12.73500000      12.73500000      12.73500000      12.73500000      12.73500000      12.73500000      12.73500000      12.73500000      12.73500000      12.73500000      12.73500000      12.73500000      12.73500000      12.73500000
        12.73500000      12.73500000      12.73500000      12.73500000      12.73500000      12.73500000      12.73500000      12.73500000      12.73500000      12.73500000      12.73500000      12.73500000      12.73500000      12.73500000
        12.73500000      12.73500000      12.73500000      12.73500000      12.73500000      12.73500000      12.73500000      12.73500000      12.73500000      12.73500000      12.73500000      12.73500000      12.73500000      12.73500000
        12.73500000      12.73500000      12.73500000      12.73500000      12.73500000      12.73500000      12.73500000      12.73500000      12.73500000      12.73500000      12.73500000      12.73500000      12.73500000      12.73500000
        12.73500000      12.73500000      12.73500000      12.73500000      12.73500000      12.73500000      12.73500000      12.73500000      12.73500000      12.73500000      12.73500000      12.73500000      12.73500000      12.73500000
        12.73500000      12.73500000      12.73500000      12.73500000      12.73500000      12.73500000      12.73500000      12.73500000      12.73500000      12.73500000      12.73500000      12.73500000      12.73500000      12.73500000
        12.73500000      12.73500000      12.73500000      12.73500000      12.73500000      12.73500000      12.73500000      12.73500000      12.73500000      12.73500000      12.73500000      12.73500000      12.73500000      12.73500000
        12.73500000      12.73500000      12.73500000      12.73500000      12.73500000      12.73500000      12.73500000      12.73500000      12.73500000      12.73500000      12.73500000      12.73500000      12.73500000      12.73500000
        12.73500000      12.73500000      12.73500000      12.73500000      12.73500000      12.73500000      12.73500000      12.73500000      12.73500000      12.73500000      12.73500000      12.73500000      12.73500000      12.73500000
END griddata

