# File generated by Flopy version 3.10.0 on 05/14/2026 at 20:43:55.
BEGIN options
  BUDGET  FILEOUT  gwf-p09-mf6.bud
  HEAD  FILEOUT  gwf-p09-mf6.hds
  HEAD  PRINT_FORMAT  COLUMNS  10  WIDTH  15  DIGITS  6  GENERAL
END options

BEGIN period  1
  SAVE  HEAD  LAST
  SAVE  BUDGET  LAST
  PRINT  HEAD  LAST
  PRINT  BUDGET  LAST
END period  1

