# File generated by Flopy version 3.10.0 on 05/14/2026 at 20:43:55.
BEGIN options
END options

BEGIN griddata
  porosity
    CONSTANT       0.30000000
END griddata

