# File generated by Flopy version 3.10.0 on 05/14/2026 at 20:43:55.
BEGIN options
  PRINT_FLOWS
END options

BEGIN sources
  WEL-1  AUX  CONCENTRATION
  CHD-1  AUX  CONCENTRATION
END sources

