# File generated by Flopy version 3.10.0 on 05/14/2026 at 20:43:55.
BEGIN options
  SCHEME  tvd
END options

