# WEL package for MODFLOW-2005 generated by Flopy 3.10.0
         2         0 
         2         0 # stress period 1
         1         4         7            86.4
         1        11         7        -1632.96
        -1         0 # stress period 2
